Opendss/Scripts/Triplex_Linecodes.txt
New Linecode.6 nphases=3
~rmatrix=[0.757254091 0.018049545 0.018049545 | 0.018049545 0.757254091 0.018049545 | 0.018049545 0.018049545 0.757254091] 
!ohms per 1000 ft
~ xmatrix=[0.301700148 0.270380881 0.262416108 | 0.270380881 0.301700148 0.270380881 | 0.262416108 0.270380881 0.301700148]
~ cmatrix=[15 | -12 15 | -12 -12 15]
~ Normamps=65  {65 1.25 *}

New Linecode.4 nphases=3
~rmatrix=[0.482632879 0.018049545 0.0180495455 | 0.018049545 0.482632879 0.018049545 | 0.018049545 0.018049545 0.482632879] 
!ohms per 1000 ft
~ xmatrix=[0.296365866 0.265053738 0.257088964 | 0.265053738 0.296365866 0.265053738 | 0.257088964 0.265053738 0.296365866]
~ cmatrix=[15 | -12 15 | -12 -12 15]
~ Normamps=90  {90 1.25 *}

New Linecode.2 nphases=3
~rmatrix=[0.309905606 0.018049545 0.018049545 | 0.018049545 0.309905606 0.018049545 | 0.018049545 0.018049545 0.309905606] 
!ohms per 1000 ft
~ xmatrix=[0.291028536 0.25976762 0.251802847 | 0.25976762 0.291028536 0.25976762 | 0.251802847 0.25976762 0.291028536]
~ cmatrix=[15 | -12 15 | -12 -12 15]
~ Normamps=156  {156 1.25 *}

New Linecode.1 nphases=3
~rmatrix=[ 0.249867727 0.018049545 0.018049545 | 0.018049545 0.249867727 0.018049545 | 0.018049545 0.018049545 0.249867727] 
!ohms per 1000 ft
~ xmatrix=[0.288376719 0.257095798 0.249131025 | 0.257095798 0.288376719 0.257095798 |  0.249131025 0.257095798 0.288376719]
~ cmatrix=[15 | -12 15 | -12 -12 15]
~ Normamps=177  {177 1.25 *}

New Linecode.1/0 nphases=3
~rmatrix=[0.201761667 0.018049545 0.018049545 | 0.018049545 0.201761667 0.018049545 | 0.018049545 0.018049545 0.201761667] 
!ohms per 1000 ft
~ xmatrix=[ 0.285770602	0.254451335 0.246486562 | 0.254451335 0.285770602 0.254451335 |  0.246486562 0.254451335 0.285770602]
~ cmatrix=[15 | -12 15 | -12 -12 15]
~ Normamps=202  {202 1.25 *}

New Linecode.2/0 nphases=3
~rmatrix=[ 0.163693485 0.018049545 0.018049545 | 0.018049545 0.163693485 0.018049545 | 0.018049545 0.018049545 0.163693485] 
!ohms per 1000 ft
~ xmatrix=[0.283040781 0.251744507 0.243779734 | 0.251744507 0.283040781 0.251744507 | 0.243779734 0.251744507 0.283040781]
~ cmatrix=[15 | -12 15 | -12 -12 15]
~ Normamps=230  {230 1.25 *}

New Linecode.3/0 nphases=3
~rmatrix=[ 0.133769242 0.018049545 0.018049545 | 0.018049545 0.133769242 0.018049545 | 0.018049545 0.018049545 0.133769242] 
!ohms per 1000 ft
~ xmatrix=[ 0.28043632 0.249124191 0.241159418 | 0.249124191 0.28043632 0.249124191 | 0.241159418 0.249124191 0.28043632]
~ cmatrix=[15 | -12 15 | -12 -12 15]
~ Normamps=263  {263 1.25 *}

New Linecode.4/0 nphases=3
~rmatrix=[ 0.109716212 0.018049545 0.018049545 | 0.018049545 0.109716212 0.018049545 | 0.018049545 0.018049545 0.109716212] 
!ohms per 1000 ft
~ xmatrix=[ 0.27765665 0.246417363 0.23845259 | 0.246417363 0.27765665 0.246417363 | 0.23845259 0.246417363 0.27765665]
~ cmatrix=[15 | -12 15 | -12 -12 15]
~ Normamps=299  {299 1.25 *}

New Linecode.350  nphases=3
~ rmatrix=[0.073731364 0.018049545 0.018049545 | 0.018049545 0.073731364 0.018049545 |0.018049545 0.018049545 0.073731364]  
! ohms per 1000 ft
~ xmatrix=[ 0.270684507 0.240374302 0.232409529 | 0.240374302 0.270684507 0.240374302 | 0.232409529 0.240374302 0.270684507 ]
~ cmatrix=[15 | -12 15 | -12 -12 15]
~ Normamps=399  {399 1.25 *}

New Linecode.500  nphases=3
~ rmatrix=[0.057064697 0.018049545 0.018049545 | 0.018049545 0.057064697 0.018049545 | 0.018049545 0.018049545 0.057064697]  
! ohms per 1000 ft
~ xmatrix=[ 0.266209885 0.236235109 0.228270336 | 0.236235109 0.266209885 0.236235109 | 0.228270336 0.236235109 0.266209885]
~ cmatrix=[15 | -12 15 | -12 -12 15]
~ NormAmps=483 {483 1.25 *}  

